data_EMAFII_charged
_audit_creation_date              2014-07-02
_audit_creation_method            'Materials Studio'
_symmetry_space_group_name_H-M    'P1'
_symmetry_Int_Tables_number       1
_symmetry_cell_setting            triclinic
loop_
_symmetry_equiv_pos_as_xyz
  x,y,z
_cell_length_a                    19.8931
_cell_length_b                    19.8931
_cell_length_c                    19.8931
_cell_angle_alpha                 90.0000
_cell_angle_beta                  90.0000
_cell_angle_gamma                 90.0000
loop_
 _atom_site_label
 _atom_site_type_symbol
 _atom_site_fract_x
 _atom_site_fract_y
 _atom_site_fract_z
 _atom_site_charge
Ag1 Ag 0.99703 0.99703 0.99703  0.318848
Ag2 Ag 0.50297 0.00297 0.49703  0.318848
Ag3 Ag 0.00297 0.49703 0.50297  0.318848
Ag4 Ag 0.49703 0.50297 0.00297  0.318848
Ag5 Ag 0.24703 0.74703 0.75297  0.318848
Ag6 Ag 0.25297 0.25297 0.25297  0.318848
Ag7 Ag 0.74703 0.75297 0.24703  0.318848
Ag8 Ag 0.75297 0.24703 0.74703  0.318848
H1 H 0.10280 0.18240 0.83790  0.101654
H2 H 0.09790 0.18120 0.98760  0.114585
H3 H 0.02100 0.19930 0.97260  0.114585
H4 H 0.03930 0.13320 0.01470  0.114585
H5 H 0.05150 0.06790 0.71100  0.114585
H6 H 0.11280 0.11930 0.71950  0.114585
H7 H 0.12400 0.04080 0.73310  0.114585
H8 H 0.98110 0.96120 0.84740  0.0851089
H9 H 0.02170 0.96930 0.77850  0.0851089
H10 H 0.15320 0.98380 0.85680  0.101654
H11 H 0.92450 0.75090 0.85010  0.101654
H12 H 0.95660 0.86070 0.82860  0.101654
H13 H 0.39720 0.81760 0.33790  0.101654
H14 H 0.40210 0.81880 0.48760  0.114585
H15 H 0.47900 0.80070 0.47260  0.114585
H16 H 0.46070 0.86680 0.51470  0.114585
H17 H 0.44850 0.93210 0.21100  0.114585
H18 H 0.38720 0.88070 0.21950  0.114585
H19 H 0.37600 0.95920 0.23310  0.114585
H20 H 0.51890 0.03880 0.34740  0.0851089
H21 H 0.47830 0.03070 0.27850  0.0851089
H22 H 0.34680 0.01620 0.35680  0.101654
H23 H 0.57550 0.24910 0.35010  0.101654
H24 H 0.54340 0.13930 0.32860  0.101654
H25 H 0.89720 0.68240 0.66210  0.101654
H26 H 0.90210 0.68120 0.51240  0.114585
H27 H 0.97900 0.69930 0.52740  0.114585
H28 H 0.96070 0.63320 0.48530  0.114585
H29 H 0.94850 0.56790 0.78900  0.114585
H30 H 0.88720 0.61930 0.78050  0.114585
H31 H 0.87600 0.54080 0.76690  0.114585
H32 H 0.01890 0.46120 0.65260  0.0851089
H33 H 0.97830 0.46930 0.72150  0.0851089
H34 H 0.84680 0.48380 0.64320  0.101654
H35 H 0.07550 0.25090 0.64990  0.101654
H36 H 0.04340 0.36070 0.67140  0.101654
H37 H 0.60280 0.31760 0.16210  0.101654
H38 H 0.59790 0.31880 0.01240  0.114585
H39 H 0.52100 0.30070 0.02740  0.114585
H40 H 0.53930 0.36680 0.98530  0.114585
H41 H 0.55150 0.43210 0.28900  0.114585
H42 H 0.61280 0.38070 0.28050  0.114585
H43 H 0.62400 0.45920 0.26690  0.114585
H44 H 0.48110 0.53880 0.15260  0.0851089
H45 H 0.52170 0.53070 0.22150  0.0851089
H46 H 0.65320 0.51620 0.14320  0.101654
H47 H 0.42450 0.74910 0.14990  0.101654
H48 H 0.45660 0.63930 0.17140  0.101654
H49 H 0.83790 0.10280 0.18240  0.101654
H50 H 0.98760 0.09790 0.18120  0.114585
H51 H 0.97260 0.02100 0.19930  0.114585
H52 H 0.01470 0.03930 0.13320  0.114585
H53 H 0.71100 0.05150 0.06790  0.114585
H54 H 0.71950 0.11280 0.11930  0.114585
H55 H 0.73310 0.12400 0.04080  0.114585
H56 H 0.84740 0.98110 0.96120  0.0851089
H57 H 0.77850 0.02170 0.96930  0.0851089
H58 H 0.85680 0.15320 0.98380  0.101654
H59 H 0.85010 0.92450 0.75090  0.101654
H60 H 0.82860 0.95660 0.86070  0.101654
H61 H 0.33790 0.39720 0.81760  0.101654
H62 H 0.48760 0.40210 0.81880  0.114585
H63 H 0.47260 0.47900 0.80070  0.114585
H64 H 0.51470 0.46070 0.86680  0.114585
H65 H 0.21100 0.44850 0.93210  0.114585
H66 H 0.21950 0.38720 0.88070  0.114585
H67 H 0.23310 0.37600 0.95920  0.114585
H68 H 0.34740 0.51890 0.03880  0.0851089
H69 H 0.27850 0.47830 0.03070  0.0851089
H70 H 0.35680 0.34680 0.01620  0.101654
H71 H 0.35010 0.57550 0.24910  0.101654
H72 H 0.32860 0.54340 0.13930  0.101654
H73 H 0.66210 0.89720 0.68240  0.101654
H74 H 0.51240 0.90210 0.68120  0.114585
H75 H 0.52740 0.97900 0.69930  0.114585
H76 H 0.48530 0.96070 0.63320  0.114585
H77 H 0.78900 0.94850 0.56790  0.114585
H78 H 0.78050 0.88720 0.61930  0.114585
H79 H 0.76690 0.87600 0.54080  0.114585
H80 H 0.65260 0.01890 0.46120  0.0851089
H81 H 0.72150 0.97830 0.46930  0.0851089
H82 H 0.64320 0.84680 0.48380  0.101654
H83 H 0.64990 0.07550 0.25090  0.101654
H84 H 0.67140 0.04340 0.36070  0.101654
H85 H 0.16210 0.60280 0.31760  0.101654
H86 H 0.01240 0.59790 0.31880  0.114585
H87 H 0.02740 0.52100 0.30070  0.114585
H88 H 0.98530 0.53930 0.36680  0.114585
H89 H 0.28900 0.55150 0.43210  0.114585
H90 H 0.28050 0.61280 0.38070  0.114585
H91 H 0.26690 0.62400 0.45920  0.114585
H92 H 0.15260 0.48110 0.53880  0.0851089
H93 H 0.22150 0.52170 0.53070  0.0851089
H94 H 0.14320 0.65320 0.51620  0.101654
H95 H 0.14990 0.42450 0.74910  0.101654
H96 H 0.17140 0.45660 0.63930  0.101654
H97 H 0.18240 0.83790 0.10280  0.101654
H98 H 0.18120 0.98760 0.09790  0.114585
H99 H 0.19930 0.97260 0.02100  0.114585
H100 H 0.13320 0.01470 0.03930  0.114585
H101 H 0.06790 0.71100 0.05150  0.114585
H102 H 0.11930 0.71950 0.11280  0.114585
H103 H 0.04080 0.73310 0.12400  0.114585
H104 H 0.96120 0.84740 0.98110  0.0851089
H105 H 0.96930 0.77850 0.02170  0.0851089
H106 H 0.98380 0.85680 0.15320  0.101654
H107 H 0.75090 0.85010 0.92450  0.101654
H108 H 0.86070 0.82860 0.95660  0.101654
H109 H 0.81760 0.33790 0.39720  0.101654
H110 H 0.81880 0.48760 0.40210  0.114585
H111 H 0.80070 0.47260 0.47900  0.114585
H112 H 0.86680 0.51470 0.46070  0.114585
H113 H 0.93210 0.21100 0.44850  0.114585
H114 H 0.88070 0.21950 0.38720  0.114585
H115 H 0.95920 0.23310 0.37600  0.114585
H116 H 0.03880 0.34740 0.51890  0.0851089
H117 H 0.03070 0.27850 0.47830  0.0851089
H118 H 0.01620 0.35680 0.34680  0.101654
H119 H 0.24910 0.35010 0.57550  0.101654
H120 H 0.13930 0.32860 0.54340  0.101654
H121 H 0.68240 0.66210 0.89720  0.101654
H122 H 0.68120 0.51240 0.90210  0.114585
H123 H 0.69930 0.52740 0.97900  0.114585
H124 H 0.63320 0.48530 0.96070  0.114585
H125 H 0.56790 0.78900 0.94850  0.114585
H126 H 0.61930 0.78050 0.88720  0.114585
H127 H 0.54080 0.76690 0.87600  0.114585
H128 H 0.46120 0.65260 0.01890  0.0851089
H129 H 0.46930 0.72150 0.97830  0.0851089
H130 H 0.48380 0.64320 0.84680  0.101654
H131 H 0.25090 0.64990 0.07550  0.101654
H132 H 0.36070 0.67140 0.04340  0.101654
H133 H 0.31760 0.16210 0.60280  0.101654
H134 H 0.31880 0.01240 0.59790  0.114585
H135 H 0.30070 0.02740 0.52100  0.114585
H136 H 0.36680 0.98530 0.53930  0.114585
H137 H 0.43210 0.28900 0.55150  0.114585
H138 H 0.38070 0.28050 0.61280  0.114585
H139 H 0.45920 0.26690 0.62400  0.114585
H140 H 0.53880 0.15260 0.48110  0.0851089
H141 H 0.53070 0.22150 0.52170  0.0851089
H142 H 0.51620 0.14320 0.65320  0.101654
H143 H 0.74910 0.14990 0.42450  0.101654
H144 H 0.63930 0.17140 0.45660  0.101654
H145 H 0.43240 0.85280 0.91210  0.101654
H146 H 0.43120 0.84790 0.76240  0.114585
H147 H 0.44930 0.77100 0.77740  0.114585
H148 H 0.38320 0.78930 0.73530  0.114585
H149 H 0.31790 0.80150 0.03900  0.114585
H150 H 0.36930 0.86280 0.03050  0.114585
H151 H 0.29080 0.87400 0.01690  0.114585
H152 H 0.21120 0.73110 0.90260  0.0851089
H153 H 0.21930 0.77170 0.97150  0.0851089
H154 H 0.23380 0.90320 0.89320  0.101654
H155 H 0.00090 0.67450 0.89990  0.101654
H156 H 0.11070 0.70660 0.92140  0.101654
H157 H 0.06760 0.14720 0.41210  0.101654
H158 H 0.06880 0.15210 0.26240  0.114585
H159 H 0.05070 0.22900 0.27740  0.114585
H160 H 0.11680 0.21070 0.23530  0.114585
H161 H 0.18210 0.19850 0.53900  0.114585
H162 H 0.13070 0.13720 0.53050  0.114585
H163 H 0.20920 0.12600 0.51690  0.114585
H164 H 0.28880 0.26890 0.40260  0.0851089
H165 H 0.28070 0.22830 0.47150  0.0851089
H166 H 0.26620 0.09680 0.39320  0.101654
H167 H 0.49910 0.32550 0.39990  0.101654
H168 H 0.38930 0.29340 0.42140  0.101654
H169 H 0.93240 0.64720 0.08790  0.101654
H170 H 0.93120 0.65210 0.23760  0.114585
H171 H 0.94930 0.72900 0.22260  0.114585
H172 H 0.88320 0.71070 0.26470  0.114585
H173 H 0.81790 0.69850 0.96100  0.114585
H174 H 0.86930 0.63720 0.96950  0.114585
H175 H 0.79080 0.62600 0.98310  0.114585
H176 H 0.71120 0.76890 0.09740  0.0851089
H177 H 0.71930 0.72830 0.02850  0.0851089
H178 H 0.73380 0.59680 0.10680  0.101654
H179 H 0.50090 0.82550 0.10010  0.101654
H180 H 0.61070 0.79340 0.07860  0.101654
H181 H 0.56760 0.35280 0.58790  0.101654
H182 H 0.56880 0.34790 0.73760  0.114585
H183 H 0.55070 0.27100 0.72260  0.114585
H184 H 0.61680 0.28930 0.76470  0.114585
H185 H 0.68210 0.30150 0.46100  0.114585
H186 H 0.63070 0.36280 0.46950  0.114585
H187 H 0.70920 0.37400 0.48310  0.114585
H188 H 0.78880 0.23110 0.59740  0.0851089
H189 H 0.78070 0.27170 0.52850  0.0851089
H190 H 0.76620 0.40320 0.60680  0.101654
H191 H 0.99910 0.17450 0.60010  0.101654
H192 H 0.88930 0.20660 0.57860  0.101654
H193 H 0.35280 0.58790 0.56760  0.101654
H194 H 0.34790 0.73760 0.56880  0.114585
H195 H 0.27100 0.72260 0.55070  0.114585
H196 H 0.28930 0.76470 0.61680  0.114585
H197 H 0.30150 0.46100 0.68210  0.114585
H198 H 0.36280 0.46950 0.63070  0.114585
H199 H 0.37400 0.48310 0.70920  0.114585
H200 H 0.23110 0.59740 0.78880  0.0851089
H201 H 0.27170 0.52850 0.78070  0.0851089
H202 H 0.40320 0.60680 0.76620  0.101654
H203 H 0.17450 0.60010 0.99910  0.101654
H204 H 0.20660 0.57860 0.88930  0.101654
H205 H 0.64720 0.08790 0.93240  0.101654
H206 H 0.65210 0.23760 0.93120  0.114585
H207 H 0.72900 0.22260 0.94930  0.114585
H208 H 0.71070 0.26470 0.88320  0.114585
H209 H 0.69850 0.96100 0.81790  0.114585
H210 H 0.63720 0.96950 0.86930  0.114585
H211 H 0.62600 0.98310 0.79080  0.114585
H212 H 0.76890 0.09740 0.71120  0.0851089
H213 H 0.72830 0.02850 0.71930  0.0851089
H214 H 0.59680 0.10680 0.73380  0.101654
H215 H 0.82550 0.10010 0.50090  0.101654
H216 H 0.79340 0.07860 0.61070  0.101654
H217 H 0.14720 0.41210 0.06760  0.101654
H218 H 0.15210 0.26240 0.06880  0.114585
H219 H 0.22900 0.27740 0.05070  0.114585
H220 H 0.21070 0.23530 0.11680  0.114585
H221 H 0.19850 0.53900 0.18210  0.114585
H222 H 0.13720 0.53050 0.13070  0.114585
H223 H 0.12600 0.51690 0.20920  0.114585
H224 H 0.26890 0.40260 0.28880  0.0851089
H225 H 0.22830 0.47150 0.28070  0.0851089
H226 H 0.09680 0.39320 0.26620  0.101654
H227 H 0.32550 0.39990 0.49910  0.101654
H228 H 0.29340 0.42140 0.38930  0.101654
H229 H 0.85280 0.91210 0.43240  0.101654
H230 H 0.84790 0.76240 0.43120  0.114585
H231 H 0.77100 0.77740 0.44930  0.114585
H232 H 0.78930 0.73530 0.38320  0.114585
H233 H 0.80150 0.03900 0.31790  0.114585
H234 H 0.86280 0.03050 0.36930  0.114585
H235 H 0.87400 0.01690 0.29080  0.114585
H236 H 0.73110 0.90260 0.21120  0.0851089
H237 H 0.77170 0.97150 0.21930  0.0851089
H238 H 0.90320 0.89320 0.23380  0.101654
H239 H 0.67450 0.89990 0.00090  0.101654
H240 H 0.70660 0.92140 0.11070  0.101654
H241 H 0.08790 0.93240 0.64720  0.101654
H242 H 0.23760 0.93120 0.65210  0.114585
H243 H 0.22260 0.94930 0.72900  0.114585
H244 H 0.26470 0.88320 0.71070  0.114585
H245 H 0.96100 0.81790 0.69850  0.114585
H246 H 0.96950 0.86930 0.63720  0.114585
H247 H 0.98310 0.79080 0.62600  0.114585
H248 H 0.09740 0.71120 0.76890  0.0851089
H249 H 0.02850 0.71930 0.72830  0.0851089
H250 H 0.10680 0.73380 0.59680  0.101654
H251 H 0.10010 0.50090 0.82550  0.101654
H252 H 0.07860 0.61070 0.79340  0.101654
H253 H 0.58790 0.56760 0.35280  0.101654
H254 H 0.73760 0.56880 0.34790  0.114585
H255 H 0.72260 0.55070 0.27100  0.114585
H256 H 0.76470 0.61680 0.28930  0.114585
H257 H 0.46100 0.68210 0.30150  0.114585
H258 H 0.46950 0.63070 0.36280  0.114585
H259 H 0.48310 0.70920 0.37400  0.114585
H260 H 0.59740 0.78880 0.23110  0.0851089
H261 H 0.52850 0.78070 0.27170  0.0851089
H262 H 0.60680 0.76620 0.40320  0.101654
H263 H 0.60010 0.99910 0.17450  0.101654
H264 H 0.57860 0.88930 0.20660  0.101654
H265 H 0.91210 0.43240 0.85280  0.101654
H266 H 0.76240 0.43120 0.84790  0.114585
H267 H 0.77740 0.44930 0.77100  0.114585
H268 H 0.73530 0.38320 0.78930  0.114585
H269 H 0.03900 0.31790 0.80150  0.114585
H270 H 0.03050 0.36930 0.86280  0.114585
H271 H 0.01690 0.29080 0.87400  0.114585
H272 H 0.90260 0.21120 0.73110  0.0851089
H273 H 0.97150 0.21930 0.77170  0.0851089
H274 H 0.89320 0.23380 0.90320  0.101654
H275 H 0.89990 0.00090 0.67450  0.101654
H276 H 0.92140 0.11070 0.70660  0.101654
H277 H 0.41210 0.06760 0.14720  0.101654
H278 H 0.26240 0.06880 0.15210  0.114585
H279 H 0.27740 0.05070 0.22900  0.114585
H280 H 0.23530 0.11680 0.21070  0.114585
H281 H 0.53900 0.18210 0.19850  0.114585
H282 H 0.53050 0.13070 0.13720  0.114585
H283 H 0.51690 0.20920 0.12600  0.114585
H284 H 0.40260 0.28880 0.26890  0.0851089
H285 H 0.47150 0.28070 0.22830  0.0851089
H286 H 0.39320 0.26620 0.09680  0.101654
H287 H 0.39990 0.49910 0.32550  0.101654
H288 H 0.42140 0.38930 0.29340  0.101654
C1 C 0.05650 0.12260 0.91380  0.116838
C2 C 0.08270 0.14070 0.84960  -0.243329
C3 C 0.07380 0.08810 0.80910  0.157938
C4 C 0.05340 0.16250 0.97770  -0.420659
C5 C 0.09210 0.07820 0.73700  -0.420659
C6 C 0.02560 0.97210 0.82810  -0.0788123
C7 C 0.07620 0.92000 0.85180  -0.0710006
C8 C 0.14000 0.93840 0.86360  -0.0689777
C9 C 0.05500 0.85240 0.86220  0.0390059
C10 C 0.96890 0.76510 0.86050  -0.0743261
C11 C 0.98810 0.83010 0.84750  -0.0689777
C12 C 0.44350 0.87740 0.41380  0.116838
C13 C 0.41730 0.85930 0.34960  -0.243329
C14 C 0.42620 0.91190 0.30910  0.157938
C15 C 0.44660 0.83750 0.47770  -0.420659
C16 C 0.40790 0.92180 0.23700  -0.420659
C17 C 0.47440 0.02790 0.32810  -0.0788123
C18 C 0.42380 0.08000 0.35180  -0.0710006
C19 C 0.36000 0.06160 0.36360  -0.0689777
C20 C 0.44500 0.14760 0.36220  0.0390059
C21 C 0.53110 0.23490 0.36050  -0.0743261
C22 C 0.51190 0.16990 0.34750  -0.0689777
C23 C 0.94350 0.62260 0.58620  0.116838
C24 C 0.91730 0.64070 0.65040  -0.243329
C25 C 0.92620 0.58810 0.69090  0.157938
C26 C 0.94660 0.66250 0.52230  -0.420659
C27 C 0.90790 0.57820 0.76300  -0.420659
C28 C 0.97440 0.47210 0.67190  -0.0788123
C29 C 0.92380 0.42000 0.64820  -0.0710006
C30 C 0.86000 0.43840 0.63640  -0.0689777
C31 C 0.94500 0.35240 0.63780  0.0390059
C32 C 0.03110 0.26510 0.63950  -0.0743261
C33 C 0.01190 0.33010 0.65250  -0.0689777
C34 C 0.55650 0.37740 0.08620  0.116838
C35 C 0.58270 0.35930 0.15040  -0.243329
C36 C 0.57380 0.41190 0.19090  0.157938
C37 C 0.55340 0.33750 0.02230  -0.420659
C38 C 0.59210 0.42180 0.26300  -0.420659
C39 C 0.52560 0.52790 0.17190  -0.0788123
C40 C 0.57620 0.58000 0.14820  -0.0710006
C41 C 0.64000 0.56160 0.13640  -0.0689777
C42 C 0.55500 0.64760 0.13780  0.0390059
C43 C 0.46890 0.73490 0.13950  -0.0743261
C44 C 0.48810 0.66990 0.15250  -0.0689777
C45 C 0.91380 0.05650 0.12260  0.116838
C46 C 0.84960 0.08270 0.14070  -0.243329
C47 C 0.80910 0.07380 0.08810  0.157938
C48 C 0.97770 0.05340 0.16250  -0.420659
C49 C 0.73700 0.09210 0.07820  -0.420659
C50 C 0.82810 0.02560 0.97210  -0.0788123
C51 C 0.85180 0.07620 0.92000  -0.0710006
C52 C 0.86360 0.14000 0.93840  -0.0689777
C53 C 0.86220 0.05500 0.85240  0.0390059
C54 C 0.86050 0.96890 0.76510  -0.0743261
C55 C 0.84750 0.98810 0.83010  -0.0689777
C56 C 0.41380 0.44350 0.87740  0.116838
C57 C 0.34960 0.41730 0.85930  -0.243329
C58 C 0.30910 0.42620 0.91190  0.157938
C59 C 0.47770 0.44660 0.83750  -0.420659
C60 C 0.23700 0.40790 0.92180  -0.420659
C61 C 0.32810 0.47440 0.02790  -0.0788123
C62 C 0.35180 0.42380 0.08000  -0.0710006
C63 C 0.36360 0.36000 0.06160  -0.0689777
C64 C 0.36220 0.44500 0.14760  0.0390059
C65 C 0.36050 0.53110 0.23490  -0.0743261
C66 C 0.34750 0.51190 0.16990  -0.0689777
C67 C 0.58620 0.94350 0.62260  0.116838
C68 C 0.65040 0.91730 0.64070  -0.243329
C69 C 0.69090 0.92620 0.58810  0.157938
C70 C 0.52230 0.94660 0.66250  -0.420659
C71 C 0.76300 0.90790 0.57820  -0.420659
C72 C 0.67190 0.97440 0.47210  -0.0788123
C73 C 0.64820 0.92380 0.42000  -0.0710006
C74 C 0.63640 0.86000 0.43840  -0.0689777
C75 C 0.63780 0.94500 0.35240  0.0390059
C76 C 0.63950 0.03110 0.26510  -0.0743261
C77 C 0.65250 0.01190 0.33010  -0.0689777
C78 C 0.08620 0.55650 0.37740  0.116838
C79 C 0.15040 0.58270 0.35930  -0.243329
C80 C 0.19090 0.57380 0.41190  0.157938
C81 C 0.02230 0.55340 0.33750  -0.420659
C82 C 0.26300 0.59210 0.42180  -0.420659
C83 C 0.17190 0.52560 0.52790  -0.0788123
C84 C 0.14820 0.57620 0.58000  -0.0710006
C85 C 0.13640 0.64000 0.56160  -0.0689777
C86 C 0.13780 0.55500 0.64760  0.0390059
C87 C 0.13950 0.46890 0.73490  -0.0743261
C88 C 0.15250 0.48810 0.66990  -0.0689777
C89 C 0.12260 0.91380 0.05650  0.116838
C90 C 0.14070 0.84960 0.08270  -0.243329
C91 C 0.08810 0.80910 0.07380  0.157938
C92 C 0.16250 0.97770 0.05340  -0.420659
C93 C 0.07820 0.73700 0.09210  -0.420659
C94 C 0.97210 0.82810 0.02560  -0.0788123
C95 C 0.92000 0.85180 0.07620  -0.0710006
C96 C 0.93840 0.86360 0.14000  -0.0689777
C97 C 0.85240 0.86220 0.05500  0.0390059
C98 C 0.76510 0.86050 0.96890  -0.0743261
C99 C 0.83010 0.84750 0.98810  -0.0689777
C100 C 0.87740 0.41380 0.44350  0.116838
C101 C 0.85930 0.34960 0.41730  -0.243329
C102 C 0.91190 0.30910 0.42620  0.157938
C103 C 0.83750 0.47770 0.44660  -0.420659
C104 C 0.92180 0.23700 0.40790  -0.420659
C105 C 0.02790 0.32810 0.47440  -0.0788123
C106 C 0.08000 0.35180 0.42380  -0.0710006
C107 C 0.06160 0.36360 0.36000  -0.0689777
C108 C 0.14760 0.36220 0.44500  0.0390059
C109 C 0.23490 0.36050 0.53110  -0.0743261
C110 C 0.16990 0.34750 0.51190  -0.0689777
C111 C 0.62260 0.58620 0.94350  0.116838
C112 C 0.64070 0.65040 0.91730  -0.243329
C113 C 0.58810 0.69090 0.92620  0.157938
C114 C 0.66250 0.52230 0.94660  -0.420659
C115 C 0.57820 0.76300 0.90790  -0.420659
C116 C 0.47210 0.67190 0.97440  -0.0788123
C117 C 0.42000 0.64820 0.92380  -0.0710006
C118 C 0.43840 0.63640 0.86000  -0.0689777
C119 C 0.35240 0.63780 0.94500  0.0390059
C120 C 0.26510 0.63950 0.03110  -0.0743261
C121 C 0.33010 0.65250 0.01190  -0.0689777
C122 C 0.37740 0.08620 0.55650  0.116838
C123 C 0.35930 0.15040 0.58270  -0.243329
C124 C 0.41190 0.19090 0.57380  0.157938
C125 C 0.33750 0.02230 0.55340  -0.420659
C126 C 0.42180 0.26300 0.59210  -0.420659
C127 C 0.52790 0.17190 0.52560  -0.0788123
C128 C 0.58000 0.14820 0.57620  -0.0710006
C129 C 0.56160 0.13640 0.64000  -0.0689777
C130 C 0.64760 0.13780 0.55500  0.0390059
C131 C 0.73490 0.13950 0.46890  -0.0743261
C132 C 0.66990 0.15250 0.48810  -0.0689777
C133 C 0.37260 0.80650 0.83620  0.116838
C134 C 0.39070 0.83270 0.90040  -0.243329
C135 C 0.33810 0.82380 0.94090  0.157938
C136 C 0.41250 0.80340 0.77230  -0.420659
C137 C 0.32820 0.84210 0.01300  -0.420659
C138 C 0.22210 0.77560 0.92190  -0.0788123
C139 C 0.17000 0.82620 0.89820  -0.0710006
C140 C 0.18840 0.89000 0.88640  -0.0689777
C141 C 0.10240 0.80500 0.88780  0.0390059
C142 C 0.01510 0.71890 0.88950  -0.0743261
C143 C 0.08010 0.73810 0.90250  -0.0689777
C144 C 0.12740 0.19350 0.33620  0.116838
C145 C 0.10930 0.16730 0.40040  -0.243329
C146 C 0.16190 0.17620 0.44090  0.157938
C147 C 0.08750 0.19660 0.27230  -0.420659
C148 C 0.17180 0.15790 0.51300  -0.420659
C149 C 0.27790 0.22440 0.42190  -0.0788123
C150 C 0.33000 0.17380 0.39820  -0.0710006
C151 C 0.31160 0.11000 0.38640  -0.0689777
C152 C 0.39760 0.19500 0.38780  0.0390059
C153 C 0.48490 0.28110 0.38950  -0.0743261
C154 C 0.41990 0.26190 0.40250  -0.0689777
C155 C 0.87260 0.69350 0.16380  0.116838
C156 C 0.89070 0.66730 0.09960  -0.243329
C157 C 0.83810 0.67620 0.05910  0.157938
C158 C 0.91250 0.69660 0.22770  -0.420659
C159 C 0.82820 0.65790 0.98700  -0.420659
C160 C 0.72210 0.72440 0.07810  -0.0788123
C161 C 0.67000 0.67380 0.10180  -0.0710006
C162 C 0.68840 0.61000 0.11360  -0.0689777
C163 C 0.60240 0.69500 0.11220  0.0390059
C164 C 0.51510 0.78110 0.11050  -0.0743261
C165 C 0.58010 0.76190 0.09750  -0.0689777
C166 C 0.62740 0.30650 0.66380  0.116838
C167 C 0.60930 0.33270 0.59960  -0.243329
C168 C 0.66190 0.32380 0.55910  0.157938
C169 C 0.58750 0.30340 0.72770  -0.420659
C170 C 0.67180 0.34210 0.48700  -0.420659
C171 C 0.77790 0.27560 0.57810  -0.0788123
C172 C 0.83000 0.32620 0.60180  -0.0710006
C173 C 0.81160 0.39000 0.61360  -0.0689777
C174 C 0.89760 0.30500 0.61220  0.0390059
C175 C 0.98490 0.21890 0.61050  -0.0743261
C176 C 0.91990 0.23810 0.59750  -0.0689777
C177 C 0.30650 0.66380 0.62740  0.116838
C178 C 0.33270 0.59960 0.60930  -0.243329
C179 C 0.32380 0.55910 0.66190  0.157938
C180 C 0.30340 0.72770 0.58750  -0.420659
C181 C 0.34210 0.48700 0.67180  -0.420659
C182 C 0.27560 0.57810 0.77790  -0.0788123
C183 C 0.32620 0.60180 0.83000  -0.0710006
C184 C 0.39000 0.61360 0.81160  -0.0689777
C185 C 0.30500 0.61220 0.89760  0.0390059
C186 C 0.21890 0.61050 0.98490  -0.0743261
C187 C 0.23810 0.59750 0.91990  -0.0689777
C188 C 0.69350 0.16380 0.87260  0.116838
C189 C 0.66730 0.09960 0.89070  -0.243329
C190 C 0.67620 0.05910 0.83810  0.157938
C191 C 0.69660 0.22770 0.91250  -0.420659
C192 C 0.65790 0.98700 0.82820  -0.420659
C193 C 0.72440 0.07810 0.72210  -0.0788123
C194 C 0.67380 0.10180 0.67000  -0.0710006
C195 C 0.61000 0.11360 0.68840  -0.0689777
C196 C 0.69500 0.11220 0.60240  0.0390059
C197 C 0.78110 0.11050 0.51510  -0.0743261
C198 C 0.76190 0.09750 0.58010  -0.0689777
C199 C 0.19350 0.33620 0.12740  0.116838
C200 C 0.16730 0.40040 0.10930  -0.243329
C201 C 0.17620 0.44090 0.16190  0.157938
C202 C 0.19660 0.27230 0.08750  -0.420659
C203 C 0.15790 0.51300 0.17180  -0.420659
C204 C 0.22440 0.42190 0.27790  -0.0788123
C205 C 0.17380 0.39820 0.33000  -0.0710006
C206 C 0.11000 0.38640 0.31160  -0.0689777
C207 C 0.19500 0.38780 0.39760  0.0390059
C208 C 0.28110 0.38950 0.48490  -0.0743261
C209 C 0.26190 0.40250 0.41990  -0.0689777
C210 C 0.80650 0.83620 0.37260  0.116838
C211 C 0.83270 0.90040 0.39070  -0.243329
C212 C 0.82380 0.94090 0.33810  0.157938
C213 C 0.80340 0.77230 0.41250  -0.420659
C214 C 0.84210 0.01300 0.32820  -0.420659
C215 C 0.77560 0.92190 0.22210  -0.0788123
C216 C 0.82620 0.89820 0.17000  -0.0710006
C217 C 0.89000 0.88640 0.18840  -0.0689777
C218 C 0.80500 0.88780 0.10240  0.0390059
C219 C 0.71890 0.88950 0.01510  -0.0743261
C220 C 0.73810 0.90250 0.08010  -0.0689777
C221 C 0.16380 0.87260 0.69350  0.116838
C222 C 0.09960 0.89070 0.66730  -0.243329
C223 C 0.05910 0.83810 0.67620  0.157938
C224 C 0.22770 0.91250 0.69660  -0.420659
C225 C 0.98700 0.82820 0.65790  -0.420659
C226 C 0.07810 0.72210 0.72440  -0.0788123
C227 C 0.10180 0.67000 0.67380  -0.0710006
C228 C 0.11360 0.68840 0.61000  -0.0689777
C229 C 0.11220 0.60240 0.69500  0.0390059
C230 C 0.11050 0.51510 0.78110  -0.0743261
C231 C 0.09750 0.58010 0.76190  -0.0689777
C232 C 0.66380 0.62740 0.30650  0.116838
C233 C 0.59960 0.60930 0.33270  -0.243329
C234 C 0.55910 0.66190 0.32380  0.157938
C235 C 0.72770 0.58750 0.30340  -0.420659
C236 C 0.48700 0.67180 0.34210  -0.420659
C237 C 0.57810 0.77790 0.27560  -0.0788123
C238 C 0.60180 0.83000 0.32620  -0.0710006
C239 C 0.61360 0.81160 0.39000  -0.0689777
C240 C 0.61220 0.89760 0.30500  0.0390059
C241 C 0.61050 0.98490 0.21890  -0.0743261
C242 C 0.59750 0.91990 0.23810  -0.0689777
C243 C 0.83620 0.37260 0.80650  0.116838
C244 C 0.90040 0.39070 0.83270  -0.243329
C245 C 0.94090 0.33810 0.82380  0.157938
C246 C 0.77230 0.41250 0.80340  -0.420659
C247 C 0.01300 0.32820 0.84210  -0.420659
C248 C 0.92190 0.22210 0.77560  -0.0788123
C249 C 0.89820 0.17000 0.82620  -0.0710006
C250 C 0.88640 0.18840 0.89000  -0.0689777
C251 C 0.88780 0.10240 0.80500  0.0390059
C252 C 0.88950 0.01510 0.71890  -0.0743261
C253 C 0.90250 0.08010 0.73810  -0.0689777
C254 C 0.33620 0.12740 0.19350  0.116838
C255 C 0.40040 0.10930 0.16730  -0.243329
C256 C 0.44090 0.16190 0.17620  0.157938
C257 C 0.27230 0.08750 0.19660  -0.420659
C258 C 0.51300 0.17180 0.15790  -0.420659
C259 C 0.42190 0.27790 0.22440  -0.0788123
C260 C 0.39820 0.33000 0.17380  -0.0710006
C261 C 0.38640 0.31160 0.11000  -0.0689777
C262 C 0.38780 0.39760 0.19500  0.0390059
C263 C 0.38950 0.48490 0.28110  -0.0743261
C264 C 0.40250 0.41990 0.26190  -0.0689777
N1 N 0.04330 0.04030 0.84640  0.136302
N2 N 0.03310 0.05980 0.91050  -0.267826
N3 N 0.45670 0.95970 0.34640  0.136302
N4 N 0.46690 0.94020 0.41050  -0.267826
N5 N 0.95670 0.54030 0.65360  0.136302
N6 N 0.96690 0.55980 0.58950  -0.267826
N7 N 0.54330 0.45970 0.15360  0.136302
N8 N 0.53310 0.44020 0.08950  -0.267826
N9 N 0.84640 0.04330 0.04030  0.136302
N10 N 0.91050 0.03310 0.05980  -0.267826
N11 N 0.34640 0.45670 0.95970  0.136302
N12 N 0.41050 0.46690 0.94020  -0.267826
N13 N 0.65360 0.95670 0.54030  0.136302
N14 N 0.58950 0.96690 0.55980  -0.267826
N15 N 0.15360 0.54330 0.45970  0.136302
N16 N 0.08950 0.53310 0.44020  -0.267826
N17 N 0.04030 0.84640 0.04330  0.136302
N18 N 0.05980 0.91050 0.03310  -0.267826
N19 N 0.95970 0.34640 0.45670  0.136302
N20 N 0.94020 0.41050 0.46690  -0.267826
N21 N 0.54030 0.65360 0.95670  0.136302
N22 N 0.55980 0.58950 0.96690  -0.267826
N23 N 0.45970 0.15360 0.54330  0.136302
N24 N 0.44020 0.08950 0.53310  -0.267826
N25 N 0.29030 0.79330 0.90360  0.136302
N26 N 0.30980 0.78310 0.83950  -0.267826
N27 N 0.20970 0.20670 0.40360  0.136302
N28 N 0.19020 0.21690 0.33950  -0.267826
N29 N 0.79030 0.70670 0.09640  0.136302
N30 N 0.80980 0.71690 0.16050  -0.267826
N31 N 0.70970 0.29330 0.59640  0.136302
N32 N 0.69020 0.28310 0.66050  -0.267826
N33 N 0.29330 0.59640 0.70970  0.136302
N34 N 0.28310 0.66050 0.69020  -0.267826
N35 N 0.70670 0.09640 0.79030  0.136302
N36 N 0.71690 0.16050 0.80980  -0.267826
N37 N 0.20670 0.40360 0.20970  0.136302
N38 N 0.21690 0.33950 0.19020  -0.267826
N39 N 0.79330 0.90360 0.29030  0.136302
N40 N 0.78310 0.83950 0.30980  -0.267826
N41 N 0.09640 0.79030 0.70670  0.136302
N42 N 0.16050 0.80980 0.71690  -0.267826
N43 N 0.59640 0.70970 0.29330  0.136302
N44 N 0.66050 0.69020 0.28310  -0.267826
N45 N 0.90360 0.29030 0.79330  0.136302
N46 N 0.83950 0.30980 0.78310  -0.267826
N47 N 0.40360 0.20970 0.20670  0.136302
N48 N 0.33950 0.19020 0.21690  -0.267826
P1 P 0.52603 0.97397 0.02603  1.39186
F1 F 0.54430 0.92190 0.96730  -0.285049
F2 F 0.47800 0.91330 0.01400  -0.285049
F3 F 0.46730 0.95570 0.07810  -0.285049
F4 F 0.51400 0.02200 0.08670  -0.285049
F5 F 0.57810 0.03270 0.04430  -0.285049
F6 F 0.58670 0.98600 0.97800  -0.285049
P2 P 0.97397 0.02603 0.52603  1.39186
F7 F 0.95570 0.07810 0.46730  -0.285049
F8 F 0.02200 0.08670 0.51400  -0.285049
F9 F 0.03270 0.04430 0.57810  -0.285049
F10 F 0.98600 0.97800 0.58670  -0.285049
F11 F 0.92190 0.96730 0.54430  -0.285049
F12 F 0.91330 0.01400 0.47800  -0.285049
P3 P 0.47397 0.47397 0.47397  1.39186
F13 F 0.45570 0.42190 0.53270  -0.285049
F14 F 0.52200 0.41330 0.48600  -0.285049
F15 F 0.53270 0.45570 0.42190  -0.285049
F16 F 0.48600 0.52200 0.41330  -0.285049
F17 F 0.42190 0.53270 0.45570  -0.285049
F18 F 0.41330 0.48600 0.52200  -0.285049
P4 P 0.02603 0.52603 0.97397  1.39186
F19 F 0.04430 0.57810 0.03270  -0.285049
F20 F 0.97800 0.58670 0.98600  -0.285049
F21 F 0.96730 0.54430 0.92190  -0.285049
F22 F 0.01400 0.47800 0.91330  -0.285049
F23 F 0.07810 0.46730 0.95570  -0.285049
F24 F 0.08670 0.51400 0.02200  -0.285049
P5 P 0.22397 0.27603 0.72397  1.39186
F25 F 0.17190 0.29430 0.78270  -0.285049
F26 F 0.16330 0.22800 0.73600  -0.285049
F27 F 0.20570 0.21730 0.67190  -0.285049
F28 F 0.27200 0.26400 0.66330  -0.285049
F29 F 0.28270 0.32810 0.70570  -0.285049
F30 F 0.23600 0.33670 0.77200  -0.285049
P6 P 0.27603 0.72397 0.22397  1.39186
F31 F 0.32810 0.70570 0.28270  -0.285049
F32 F 0.33670 0.77200 0.23600  -0.285049
F33 F 0.29430 0.78270 0.17190  -0.285049
F34 F 0.22800 0.73600 0.16330  -0.285049
F35 F 0.21730 0.67190 0.20570  -0.285049
F36 F 0.26400 0.66330 0.27200  -0.285049
P7 P 0.72397 0.22397 0.27603  1.39186
F37 F 0.67190 0.20570 0.21730  -0.285049
F38 F 0.66330 0.27200 0.26400  -0.285049
F39 F 0.70570 0.28270 0.32810  -0.285049
F40 F 0.77200 0.23600 0.33670  -0.285049
F41 F 0.78270 0.17190 0.29430  -0.285049
F42 F 0.73600 0.16330 0.22800  -0.285049
P8 P 0.77603 0.77603 0.77603  1.39186
F43 F 0.82810 0.79430 0.71730  -0.285049
F44 F 0.83670 0.72800 0.76400  -0.285049
F45 F 0.79430 0.71730 0.82810  -0.285049
F46 F 0.72800 0.76400 0.83670  -0.285049
F47 F 0.71730 0.82810 0.79430  -0.285049
F48 F 0.76400 0.83670 0.72800  -0.285049
