data_image0
_cell_length_a       31.963
_cell_length_b       31.963
_cell_length_c       16.7135
_cell_angle_alpha    90
_cell_angle_beta     90
_cell_angle_gamma    120

_symmetry_space_group_name_H-M    "P 1"
_symmetry_int_tables_number       1

loop_
  _symmetry_equiv_pos_as_xyz
  'x, y, z'

loop_
 _atom_site_label
 _atom_site_type_symbol
 _atom_site_fract_x
 _atom_site_fract_y
 _atom_site_fract_z
 _atom_site_charge
O1 O 0.25000 0.66030 0.41270  -0.574088
C1 C 0.14400 0.53430 0.23810  -0.061283
H1 H 0.13230 0.50320 0.21840  0.115453
C2 C 0.17840 0.55120 0.29560  -0.061283
H2 H 0.19010 0.53180 0.31540  0.115453
O2 O 0.33970 0.58970 0.41270  -0.574088
C3 C 0.46570 0.60970 0.23810  -0.061283
H3 H 0.49680 0.62910 0.21840  0.115453
C4 C 0.44880 0.62720 0.29560  -0.061283
H4 H 0.46820 0.65830 0.31540  0.115453
O3 O 0.41030 0.75000 0.41270  -0.574088
C5 C 0.39030 0.85600 0.23810  -0.061283
H5 H 0.37090 0.86770 0.21840  0.115453
C6 C 0.37280 0.82160 0.29560  -0.061283
H6 H 0.34170 0.80990 0.31540  0.115453
O4 O 0.75000 0.33970 0.41270  -0.574088
C7 C 0.85600 0.46570 0.23810  -0.061283
H7 H 0.86770 0.49680 0.21840  0.115453
C8 C 0.82160 0.44880 0.29560  -0.061283
H8 H 0.80990 0.46820 0.31540  0.115453
O5 O 0.66030 0.41030 0.41270  -0.574088
C9 C 0.53430 0.39030 0.23810  -0.061283
H9 H 0.50320 0.37090 0.21840  0.115453
C10 C 0.55120 0.37280 0.29560  -0.061283
H10 H 0.53180 0.34170 0.31540  0.115453
O6 O 0.58970 0.25000 0.41270  -0.574088
C11 C 0.60970 0.14400 0.23810  -0.061283
H11 H 0.62910 0.13230 0.21840  0.115453
C12 C 0.62720 0.17840 0.29560  -0.061283
H12 H 0.65830 0.19010 0.31540  0.115453
O7 O 0.66030 0.25000 0.58730  -0.574088
C13 C 0.53430 0.14400 0.76190  -0.061283
H13 H 0.50320 0.13230 0.78160  0.115453
C14 C 0.55120 0.17840 0.70440  -0.061283
H14 H 0.53180 0.19010 0.68460  0.115453
O8 O 0.58970 0.33970 0.58730  -0.574088
C15 C 0.60970 0.46570 0.76190  -0.061283
H15 H 0.62910 0.49680 0.78160  0.115453
C16 C 0.62720 0.44880 0.70440  -0.061283
H16 H 0.65830 0.46820 0.68460  0.115453
O9 O 0.75000 0.41030 0.58730  -0.574088
C17 C 0.85600 0.39030 0.76190  -0.061283
H17 H 0.86770 0.37090 0.78160  0.115453
C18 C 0.82160 0.37280 0.70440  -0.061283
H18 H 0.80990 0.34170 0.68460  0.115453
O10 O 0.33970 0.75000 0.58730  -0.574088
C19 C 0.46570 0.85600 0.76190  -0.061283
H19 H 0.49680 0.86770 0.78160  0.115453
C20 C 0.44880 0.82160 0.70440  -0.061283
H20 H 0.46820 0.80990 0.68460  0.115453
O11 O 0.41030 0.66030 0.58730  -0.574088
C21 C 0.39030 0.53430 0.76190  -0.061283
H21 H 0.37090 0.50320 0.78160  0.115453
C22 C 0.37280 0.55120 0.70440  -0.061283
H22 H 0.34170 0.53180 0.68460  0.115453
O12 O 0.25000 0.58970 0.58730  -0.574088
C23 C 0.14400 0.60970 0.76190  -0.061283
H23 H 0.13230 0.62910 0.78160  0.115453
C24 C 0.17840 0.62720 0.70440  -0.061283
H24 H 0.19010 0.65830 0.68460  0.115453
O13 O 0.75000 0.33970 0.58730  -0.574088
C25 C 0.85600 0.46570 0.76190  -0.061283
H25 H 0.86770 0.49680 0.78160  0.115453
C26 C 0.82160 0.44880 0.70440  -0.061283
H26 H 0.80990 0.46820 0.68460  0.115453
O14 O 0.66030 0.41030 0.58730  -0.574088
C27 C 0.53430 0.39030 0.76190  -0.061283
H27 H 0.50320 0.37090 0.78160  0.115453
C28 C 0.55120 0.37280 0.70440  -0.061283
H28 H 0.53180 0.34170 0.68460  0.115453
O15 O 0.58970 0.25000 0.58730  -0.574088
C29 C 0.60970 0.14400 0.76190  -0.061283
H29 H 0.62910 0.13230 0.78160  0.115453
C30 C 0.62720 0.17840 0.70440  -0.061283
H30 H 0.65830 0.19010 0.68460  0.115453
O16 O 0.25000 0.66030 0.58730  -0.574088
C31 C 0.14400 0.53430 0.76190  -0.061283
H31 H 0.13230 0.50320 0.78160  0.115453
C32 C 0.17840 0.55120 0.70440  -0.061283
H32 H 0.19010 0.53180 0.68460  0.115453
O17 O 0.33970 0.58970 0.58730  -0.574088
C33 C 0.46570 0.60970 0.76190  -0.061283
H33 H 0.49680 0.62910 0.78160  0.115453
C34 C 0.44880 0.62720 0.70440  -0.061283
H34 H 0.46820 0.65830 0.68460  0.115453
O18 O 0.41030 0.75000 0.58730  -0.574088
C35 C 0.39030 0.85600 0.76190  -0.061283
H35 H 0.37090 0.86770 0.78160  0.115453
C36 C 0.37280 0.82160 0.70440  -0.061283
H36 H 0.34170 0.80990 0.68460  0.115453
O19 O 0.33970 0.75000 0.41270  -0.574088
C37 C 0.46570 0.85600 0.23810  -0.061283
H37 H 0.49680 0.86770 0.21840  0.115453
C38 C 0.44880 0.82160 0.29560  -0.061283
H38 H 0.46820 0.80990 0.31540  0.115453
O20 O 0.41030 0.66030 0.41270  -0.574088
C39 C 0.39030 0.53430 0.23810  -0.061283
H39 H 0.37090 0.50320 0.21840  0.115453
C40 C 0.37280 0.55120 0.29560  -0.061283
H40 H 0.34170 0.53180 0.31540  0.115453
O21 O 0.25000 0.58970 0.41270  -0.574088
C41 C 0.14400 0.60970 0.23810  -0.061283
H41 H 0.13230 0.62910 0.21840  0.115453
C42 C 0.17840 0.62720 0.29560  -0.061283
H42 H 0.19010 0.65830 0.31540  0.115453
O22 O 0.66030 0.25000 0.41270  -0.574088
C43 C 0.53430 0.14400 0.23810  -0.061283
H43 H 0.50320 0.13230 0.21840  0.115453
C44 C 0.55120 0.17840 0.29560  -0.061283
H44 H 0.53180 0.19010 0.31540  0.115453
O23 O 0.58970 0.33970 0.41270  -0.574088
C45 C 0.60970 0.46570 0.23810  -0.061283
H45 H 0.62910 0.49680 0.21840  0.115453
C46 C 0.62720 0.44880 0.29560  -0.061283
H46 H 0.65830 0.46820 0.31540  0.115453
O24 O 0.75000 0.41030 0.41270  -0.574088
C47 C 0.85600 0.39030 0.23810  -0.061283
H47 H 0.86770 0.37090 0.21840  0.115453
C48 C 0.82160 0.37280 0.29560  -0.061283
H48 H 0.80990 0.34170 0.31540  0.115453
Ni1 Ni 0.29720 0.70280 0.50000  1.07633
Ni2 Ni 0.29720 0.59440 0.50000  1.07633
Ni3 Ni 0.40560 0.70280 0.50000  1.07633
Ni4 Ni 0.70280 0.29720 0.50000  1.07633
Ni5 Ni 0.70280 0.40560 0.50000  1.07633
Ni6 Ni 0.59440 0.29720 0.50000  1.07633
C49 C 0.10260 0.55130 0.06670  0.132803
C50 C 0.03900 0.51950 0.16730  0.132803
C51 C 0.08750 0.54375 0.14420  -0.0863383
C52 C 0.02470 0.51235 0.24640  -0.179941
H49 H 0.04470 0.52235 0.29100  0.115453
C53 C 0.14970 0.57485 0.04230  -0.179941
H50 H 0.17680 0.58840 0.07530  0.115453
C54 C 0.12540 0.56270 0.20750  0.074416
C55 C 0.19640 0.59820 0.32500  -0.131784
C56 C 0.23710 0.61855 0.38990  0.677106
C57 C 0.44870 0.55130 0.06670  0.132803
C58 C 0.48050 0.51950 0.16730  0.132803
C59 C 0.45625 0.54375 0.14420  -0.0863383
C60 C 0.48765 0.51235 0.24640  -0.179941
H51 H 0.47765 0.52235 0.29100  0.115453
C61 C 0.42515 0.57485 0.04230  -0.179941
H52 H 0.41160 0.58840 0.07530  0.115453
C62 C 0.43730 0.56270 0.20750  0.074416
C63 C 0.40180 0.59820 0.32500  -0.131784
C64 C 0.38145 0.61855 0.38990  0.677106
C65 C 0.44870 0.89740 0.06670  0.132803
C66 C 0.48050 0.96100 0.16730  0.132803
C67 C 0.45625 0.91250 0.14420  -0.0863383
C68 C 0.48765 0.97530 0.24640  -0.179941
H53 H 0.47765 0.95530 0.29100  0.115453
C69 C 0.42515 0.85030 0.04230  -0.179941
H54 H 0.41160 0.82320 0.07530  0.115453
C70 C 0.43730 0.87460 0.20750  0.074416
C71 C 0.40180 0.80360 0.32500  -0.131784
C72 C 0.38145 0.76290 0.38990  0.677106
C73 C 0.89740 0.44870 0.06670  0.132803
C74 C 0.96100 0.48050 0.16730  0.132803
C75 C 0.91250 0.45625 0.14420  -0.0863383
C76 C 0.97530 0.48765 0.24640  -0.179941
H55 H 0.95530 0.47765 0.29100  0.115453
C77 C 0.85030 0.42515 0.04230  -0.179941
H56 H 0.82320 0.41160 0.07530  0.115453
C78 C 0.87460 0.43730 0.20750  0.074416
C79 C 0.80360 0.40180 0.32500  -0.131784
C80 C 0.76290 0.38145 0.38990  0.677106
C81 C 0.55130 0.44870 0.06670  0.132803
C82 C 0.51950 0.48050 0.16730  0.132803
C83 C 0.54375 0.45625 0.14420  -0.0863383
C84 C 0.51235 0.48765 0.24640  -0.179941
H57 H 0.52235 0.47765 0.29100  0.115453
C85 C 0.57485 0.42515 0.04230  -0.179941
H58 H 0.58840 0.41160 0.07530  0.115453
C86 C 0.56270 0.43730 0.20750  0.074416
C87 C 0.59820 0.40180 0.32500  -0.131784
C88 C 0.61855 0.38145 0.38990  0.677106
C89 C 0.55130 0.10260 0.06670  0.132803
C90 C 0.51950 0.03900 0.16730  0.132803
C91 C 0.54375 0.08750 0.14420  -0.0863383
C92 C 0.51235 0.02470 0.24640  -0.179941
H59 H 0.52235 0.04470 0.29100  0.115453
C93 C 0.57485 0.14970 0.04230  -0.179941
H60 H 0.58840 0.17680 0.07530  0.115453
C94 C 0.56270 0.12540 0.20750  0.074416
C95 C 0.59820 0.19640 0.32500  -0.131784
C96 C 0.61855 0.23710 0.38990  0.677106
C97 C 0.55130 0.10260 0.93330  0.132803
C98 C 0.51950 0.03900 0.83270  0.132803
C99 C 0.54375 0.08750 0.85580  -0.0863383
C100 C 0.51235 0.02470 0.75360  -0.179941
H61 H 0.52235 0.04470 0.70900  0.115453
C101 C 0.57485 0.14970 0.95770  -0.179941
H62 H 0.58840 0.17680 0.92470  0.115453
C102 C 0.56270 0.12540 0.79250  0.074416
C103 C 0.59820 0.19640 0.67500  -0.131784
C104 C 0.61855 0.23710 0.61010  0.677106
C105 C 0.55130 0.44870 0.93330  0.132803
C106 C 0.51950 0.48050 0.83270  0.132803
C107 C 0.54375 0.45625 0.85580  -0.0863383
C108 C 0.51235 0.48765 0.75360  -0.179941
H63 H 0.52235 0.47765 0.70900  0.115453
C109 C 0.57485 0.42515 0.95770  -0.179941
H64 H 0.58840 0.41160 0.92470  0.115453
C110 C 0.56270 0.43730 0.79250  0.074416
C111 C 0.59820 0.40180 0.67500  -0.131784
C112 C 0.61855 0.38145 0.61010  0.677106
C113 C 0.89740 0.44870 0.93330  0.132803
C114 C 0.96100 0.48050 0.83270  0.132803
C115 C 0.91250 0.45625 0.85580  -0.0863383
C116 C 0.97530 0.48765 0.75360  -0.179941
H65 H 0.95530 0.47765 0.70900  0.115453
C117 C 0.85030 0.42515 0.95770  -0.179941
H66 H 0.82320 0.41160 0.92470  0.115453
C118 C 0.87460 0.43730 0.79250  0.074416
C119 C 0.80360 0.40180 0.67500  -0.131784
C120 C 0.76290 0.38145 0.61010  0.677106
C121 C 0.44870 0.89740 0.93330  0.132803
C122 C 0.48050 0.96100 0.83270  0.132803
C123 C 0.45625 0.91250 0.85580  -0.0863383
C124 C 0.48765 0.97530 0.75360  -0.179941
H67 H 0.47765 0.95530 0.70900  0.115453
C125 C 0.42515 0.85030 0.95770  -0.179941
H68 H 0.41160 0.82320 0.92470  0.115453
C126 C 0.43730 0.87460 0.79250  0.074416
C127 C 0.40180 0.80360 0.67500  -0.131784
C128 C 0.38145 0.76290 0.61010  0.677106
C129 C 0.44870 0.55130 0.93330  0.132803
C130 C 0.48050 0.51950 0.83270  0.132803
C131 C 0.45625 0.54375 0.85580  -0.0863383
C132 C 0.48765 0.51235 0.75360  -0.179941
H69 H 0.47765 0.52235 0.70900  0.115453
C133 C 0.42515 0.57485 0.95770  -0.179941
H70 H 0.41160 0.58840 0.92470  0.115453
C134 C 0.43730 0.56270 0.79250  0.074416
C135 C 0.40180 0.59820 0.67500  -0.131784
C136 C 0.38145 0.61855 0.61010  0.677106
C137 C 0.10260 0.55130 0.93330  0.132803
C138 C 0.03900 0.51950 0.83270  0.132803
C139 C 0.08750 0.54375 0.85580  -0.0863383
C140 C 0.02470 0.51235 0.75360  -0.179941
H71 H 0.04470 0.52235 0.70900  0.115453
C141 C 0.14970 0.57485 0.95770  -0.179941
H72 H 0.17680 0.58840 0.92470  0.115453
C142 C 0.12540 0.56270 0.79250  0.074416
C143 C 0.19640 0.59820 0.67500  -0.131784
C144 C 0.23710 0.61855 0.61010  0.677106
N1 N 0.07160 0.53580 0.00000  -0.344659
N2 N 0.46420 0.53580 0.00000  -0.344659
N3 N 0.46420 0.92840 0.00000  -0.344659
N4 N 0.92840 0.46420 0.00000  -0.344659
N5 N 0.53580 0.46420 0.00000  -0.344659
N6 N 0.53580 0.07160 0.00000  -0.344659
Co1 Co 0.00000 0.50000 0.00000  0.717084
Co2 Co 0.50000 0.50000 0.00000  0.717084
Co3 Co 0.50000 0.00000 0.00000  0.717084
O25 O 0.33333 0.66667 0.50000  -0.667868
O26 O 0.66667 0.33333 0.50000  -0.667868
N7 N 0.00000 0.50000 0.11550  -0.344659
N8 N 0.50000 0.50000 0.11550  -0.344659
N9 N 0.50000 0.00000 0.11550  -0.344659
N10 N 0.50000 0.00000 0.88450  -0.344659
N11 N 0.50000 0.50000 0.88450  -0.344659
N12 N 0.00000 0.50000 0.88450  -0.344659
