data_image0
_cell_length_a       8.076
_cell_length_b       12.545
_cell_length_c       15.713
_cell_angle_alpha    71.896
_cell_angle_beta     82.14
_cell_angle_gamma    75.62

_symmetry_space_group_name_H-M    "P 1"
_symmetry_int_tables_number       1

loop_
  _symmetry_equiv_pos_as_xyz
  'x, y, z'

loop_
 _atom_site_label
 _atom_site_type_symbol
 _atom_site_fract_x
 _atom_site_fract_y
 _atom_site_fract_z
 _atom_site_charge
Nd1 Nd 0.02523 0.17911 0.86469  2.44294
Nd2 Nd 0.64533 0.37214 0.61446  2.42517
O1 O 0.55010 0.44990 0.74610  -0.634968
O2 O 0.52590 0.57720 0.54130  -0.794791
O3 O 0.33440 0.39130 0.64210  -0.657644
O4 O 0.55490 0.21080 0.73520  -0.657644
O5 O 0.09910 0.10720 0.72970  -0.657644
O6 O 0.11840 0.33290 0.73580  -0.657644
O7 O 0.78310 0.32900 0.80210  -0.634968
C1 C 0.29500 0.84970 0.85400  -0.218888
H1 H 0.22570 0.88980 0.80300  0.100957
H2 H 0.40000 0.87790 0.84230  0.100957
N1 N 0.16900 0.26390 0.99120  -0.276091
O8 O 0.59650 0.24280 0.52410  -0.634968
O9 O 0.14260 0.98230 0.92960  -0.657644
O10 O 0.81820 0.20430 0.99360  -0.657644
O11 O 0.89270 0.22240 0.64170  -0.657644
N2 N 0.33850 0.72420 0.86290  0.05684
N3 N 0.40600 0.82910 0.62440  0.05684
O12 O 0.34370 0.15530 0.83180  -0.657644
C2 C 0.53520 0.32060 0.45770  0.787724
N4 N 0.48190 0.55200 0.87980  0.05684
O13 O 0.17390 0.15900 0.00690  -0.596112
C3 C 0.02640 0.14470 0.65850  0.753984
C4 C 0.19810 0.87720 0.93790  0.753984
N5 N 0.25400 0.00280 0.60080  0.05684
O14 O 0.09400 0.33680 0.92020  -0.596112
C5 C 0.40040 0.21960 0.76330  0.610476
C6 C 0.65340 0.40790 0.80460  0.787724
C7 C 0.50800 0.90000 0.62410  -0.137863
H3 H 0.62530 0.87840 0.63100  0.0931139
C8 C 0.49350 0.65920 0.86780  0.0556569
H4 H 0.59440 0.68410 0.86350  0.0873144
C9 C 0.10300 0.10060 0.58110  -0.218888
H5 H 0.13680 0.16320 0.53320  0.100957
H6 H 0.01570 0.07650 0.55940  0.100957
C10 C 0.27180 0.32410 0.70910  0.610476
O15 O 0.22600 0.30430 0.03850  -0.335635
C11 C 0.53900 0.29460 0.36870  -0.0559323
H7 H 0.42540 0.32330 0.34620  0.100957
H8 H 0.61620 0.33550 0.32550  0.100957
C12 C 0.22400 0.65700 0.86900  -0.137863
H9 H 0.10640 0.68200 0.86570  0.0931139
C13 C 0.62800 0.45420 0.88470  -0.0559323
H10 H 0.61220 0.39300 0.93870  0.100957
H11 H 0.73150 0.47790 0.88940  0.100957
C14 C 0.31400 0.54870 0.88070  -0.137863
H12 H 0.27070 0.48410 0.88800  0.0931139
C15 C 0.25000 0.89490 0.60750  0.0556569
H13 H 0.15410 0.86980 0.60150  0.0873144
C16 C 0.41200 0.00640 0.61230  -0.137863
H14 H 0.44960 0.07090 0.61220  0.0931139
Nd3 Nd 0.97477 0.82089 0.13531  2.44294
Nd4 Nd 0.35467 0.62786 0.38554  2.42517
O16 O 0.44990 0.55010 0.25390  -0.634968
O17 O 0.47410 0.42280 0.45870  -0.794791
O18 O 0.66560 0.60870 0.35790  -0.657644
O19 O 0.44510 0.78920 0.26480  -0.657644
O20 O 0.90090 0.89280 0.27030  -0.657644
O21 O 0.88160 0.66710 0.26420  -0.657644
O22 O 0.21690 0.67100 0.19790  -0.634968
C17 C 0.70500 0.15030 0.14600  -0.218888
H15 H 0.77430 0.11020 0.19700  0.100957
H16 H 0.60000 0.12210 0.15770  0.100957
N6 N 0.83100 0.73610 0.00880  -0.276091
O23 O 0.40350 0.75720 0.47590  -0.634968
O24 O 0.85740 0.01770 0.07040  -0.657644
O25 O 0.18180 0.79570 0.00640  -0.657644
O26 O 0.10730 0.77760 0.35830  -0.657644
N7 N 0.66150 0.27580 0.13710  0.05684
N8 N 0.59400 0.17090 0.37560  0.05684
O27 O 0.65630 0.84470 0.16820  -0.657644
C18 C 0.46480 0.67940 0.54230  0.787724
N9 N 0.51810 0.44800 0.12020  0.05684
O28 O 0.82610 0.84100 0.99310  -0.596112
C19 C 0.97360 0.85530 0.34150  0.753984
C20 C 0.80190 0.12280 0.06210  0.753984
N10 N 0.74600 0.99720 0.39920  0.05684
O29 O 0.90600 0.66320 0.07980  -0.596112
C21 C 0.59960 0.78040 0.23670  0.610476
C22 C 0.34660 0.59210 0.19540  0.787724
C23 C 0.49200 0.10000 0.37590  -0.137863
H17 H 0.37470 0.12160 0.36900  0.0931139
C24 C 0.50650 0.34080 0.13220  0.0556569
H18 H 0.40560 0.31590 0.13650  0.0873144
C25 C 0.89700 0.89940 0.41890  -0.218888
H19 H 0.86320 0.83680 0.46680  0.100957
H20 H 0.98430 0.92350 0.44060  0.100957
C26 C 0.72820 0.67590 0.29090  0.610476
O30 O 0.77400 0.69570 0.96150  -0.335635
C27 C 0.46100 0.70540 0.63130  -0.0559323
H21 H 0.57460 0.67670 0.65380  0.100957
H22 H 0.38380 0.66450 0.67450  0.100957
C28 C 0.77600 0.34300 0.13100  -0.137863
H23 H 0.89360 0.31800 0.13430  0.0931139
C29 C 0.37200 0.54580 0.11530  -0.0559323
H24 H 0.38780 0.60700 0.06130  0.100957
H25 H 0.26850 0.52210 0.11060  0.100957
C30 C 0.68600 0.45130 0.11930  -0.137863
H26 H 0.72930 0.51590 0.11200  0.0931139
C31 C 0.75000 0.10510 0.39250  0.0556569
H27 H 0.84590 0.13020 0.39850  0.0873144
C32 C 0.58800 0.99360 0.38770  -0.137863
H28 H 0.55040 0.92910 0.38780  0.0931139
